crates/dss-core/tests/data/line_geometry_rules/a_units_on_line_2_only.dss
! Script A: units=m on the line of conductor 2 only.
Clear
Set DefaultBaseFrequency=60
New Circuit.lgrules basekv=12.47 phases=3 bus1=src
Set EarthModel=Carson
Redirect library.dss
New LineGeometry.g nconds=3 nphases=3
~ cond=1 wire=ACSR_556_5 x=-4 h=28
~ cond=2 wire=ACSR_556_5 x=0 h=28 units=m
~ cond=3 wire=ACSR_556_5 x=4 h=28
New Line.L bus1=src.1.2.3 bus2=b.1.2.3 geometry=g length=1 units=mi
New Load.ld bus1=b phases=3 kv=12.47 kw=1000 pf=0.95
Set voltagebases=[12.47]
CalcVoltageBases
Solve
